/*--------------------------------*- C++ -*----------------------------------*\
| =========                 |                                                 |
| \\      /  F ield         | OpenFOAM: The Open Source CFD Toolbox           |
|  \\    /   O peration     | Version:  2406                                  |
|   \\  /    A nd           | Website:  www.openfoam.com                      |
|    \\/     M anipulation  |                                                 |
\*---------------------------------------------------------------------------*/
FoamFile
{
    version     2.0;
    format      ascii;
    arch        "LSB;label=32;scalar=64";
    class       polyBoundaryMesh;
    location    "constant/polyMesh";
    object      boundary;
}
// * * * * * * * * * * * * * * * * * * * * * * * * * * * * * * * * * * * * * //

5
(
    inlet
    {
        type            patch;
        nFaces          100;
        startFace       299000;
    }
    outlet
    {
        type            patch;
        nFaces          200;
        startFace       299100;
    }
    upperWall
    {
        type            wall;
        inGroups        1(wall);
        nFaces          800;
        startFace       299300;
    }
    lowerWall
    {
        type            wall;
        inGroups        1(wall);
        nFaces          900;
        startFace       300100;
    }
    frontAndBack
    {
        type            empty;
        inGroups        1(empty);
        nFaces          300000;
        startFace       301000;
    }
)

// ************************************************************************* //
